1728
Atomic cluster
F	0	0	0
F	1	0	0
CL	2	0	0
F	3	0	0
F	4	0	0
F	5	0	0
F	6	0	0
CL	7	0	0
F	8	0	0
F	9	0	0
F	10	0	0
CL	11	0	0
CL	0	1	0
F	1	1	0
CL	2	1	0
F	3	1	0
F	4	1	0
F	5	1	0
CL	6	1	0
CL	7	1	0
CL	8	1	0
F	9	1	0
CL	10	1	0
F	11	1	0
F	0	2	0
CL	1	2	0
F	2	2	0
F	3	2	0
F	4	2	0
F	5	2	0
CL	6	2	0
F	7	2	0
F	8	2	0
CL	9	2	0
F	10	2	0
CL	11	2	0
CL	0	3	0
F	1	3	0
CL	2	3	0
F	3	3	0
CL	4	3	0
F	5	3	0
CL	6	3	0
F	7	3	0
F	8	3	0
F	9	3	0
F	10	3	0
F	11	3	0
F	0	4	0
CL	1	4	0
CL	2	4	0
CL	3	4	0
CL	4	4	0
F	5	4	0
F	6	4	0
CL	7	4	0
F	8	4	0
CL	9	4	0
F	10	4	0
CL	11	4	0
CL	0	5	0
F	1	5	0
F	2	5	0
F	3	5	0
CL	4	5	0
F	5	5	0
CL	6	5	0
CL	7	5	0
CL	8	5	0
F	9	5	0
CL	10	5	0
F	11	5	0
F	0	6	0
F	1	6	0
F	2	6	0
F	3	6	0
CL	4	6	0
CL	5	6	0
F	6	6	0
F	7	6	0
F	8	6	0
F	9	6	0
F	10	6	0
F	11	6	0
F	0	7	0
CL	1	7	0
F	2	7	0
F	3	7	0
F	4	7	0
CL	5	7	0
F	6	7	0
CL	7	7	0
CL	8	7	0
F	9	7	0
F	10	7	0
F	11	7	0
CL	0	8	0
CL	1	8	0
F	2	8	0
CL	3	8	0
F	4	8	0
CL	5	8	0
F	6	8	0
F	7	8	0
CL	8	8	0
CL	9	8	0
F	10	8	0
CL	11	8	0
CL	0	9	0
F	1	9	0
F	2	9	0
CL	3	9	0
CL	4	9	0
CL	5	9	0
F	6	9	0
CL	7	9	0
CL	8	9	0
CL	9	9	0
F	10	9	0
F	11	9	0
F	0	10	0
F	1	10	0
CL	2	10	0
CL	3	10	0
CL	4	10	0
CL	5	10	0
CL	6	10	0
F	7	10	0
CL	8	10	0
CL	9	10	0
F	10	10	0
CL	11	10	0
F	0	11	0
F	1	11	0
F	2	11	0
F	3	11	0
F	4	11	0
CL	5	11	0
CL	6	11	0
F	7	11	0
CL	8	11	0
F	9	11	0
CL	10	11	0
F	11	11	0
CL	0	0	1
F	1	0	1
CL	2	0	1
F	3	0	1
F	4	0	1
CL	5	0	1
CL	6	0	1
CL	7	0	1
F	8	0	1
CL	9	0	1
CL	10	0	1
CL	11	0	1
CL	0	1	1
F	1	1	1
F	2	1	1
F	3	1	1
F	4	1	1
F	5	1	1
F	6	1	1
CL	7	1	1
CL	8	1	1
F	9	1	1
F	10	1	1
F	11	1	1
CL	0	2	1
CL	1	2	1
F	2	2	1
F	3	2	1
CL	4	2	1
F	5	2	1
F	6	2	1
F	7	2	1
CL	8	2	1
F	9	2	1
F	10	2	1
CL	11	2	1
F	0	3	1
F	1	3	1
CL	2	3	1
F	3	3	1
CL	4	3	1
F	5	3	1
CL	6	3	1
F	7	3	1
F	8	3	1
F	9	3	1
F	10	3	1
CL	11	3	1
F	0	4	1
CL	1	4	1
CL	2	4	1
F	3	4	1
F	4	4	1
F	5	4	1
F	6	4	1
CL	7	4	1
F	8	4	1
F	9	4	1
CL	10	4	1
F	11	4	1
CL	0	5	1
F	1	5	1
F	2	5	1
F	3	5	1
CL	4	5	1
F	5	5	1
F	6	5	1
F	7	5	1
F	8	5	1
F	9	5	1
CL	10	5	1
F	11	5	1
CL	0	6	1
CL	1	6	1
CL	2	6	1
F	3	6	1
F	4	6	1
CL	5	6	1
CL	6	6	1
CL	7	6	1
CL	8	6	1
F	9	6	1
F	10	6	1
CL	11	6	1
F	0	7	1
F	1	7	1
F	2	7	1
CL	3	7	1
F	4	7	1
CL	5	7	1
CL	6	7	1
CL	7	7	1
F	8	7	1
F	9	7	1
CL	10	7	1
F	11	7	1
F	0	8	1
F	1	8	1
CL	2	8	1
F	3	8	1
F	4	8	1
CL	5	8	1
CL	6	8	1
F	7	8	1
F	8	8	1
F	9	8	1
CL	10	8	1
F	11	8	1
F	0	9	1
F	1	9	1
CL	2	9	1
F	3	9	1
CL	4	9	1
CL	5	9	1
F	6	9	1
F	7	9	1
CL	8	9	1
CL	9	9	1
CL	10	9	1
F	11	9	1
CL	0	10	1
F	1	10	1
F	2	10	1
CL	3	10	1
CL	4	10	1
CL	5	10	1
CL	6	10	1
F	7	10	1
CL	8	10	1
F	9	10	1
F	10	10	1
F	11	10	1
CL	0	11	1
CL	1	11	1
CL	2	11	1
F	3	11	1
F	4	11	1
CL	5	11	1
F	6	11	1
CL	7	11	1
F	8	11	1
CL	9	11	1
CL	10	11	1
F	11	11	1
F	0	0	2
F	1	0	2
CL	2	0	2
F	3	0	2
CL	4	0	2
CL	5	0	2
CL	6	0	2
CL	7	0	2
CL	8	0	2
F	9	0	2
CL	10	0	2
F	11	0	2
CL	0	1	2
F	1	1	2
CL	2	1	2
F	3	1	2
CL	4	1	2
F	5	1	2
CL	6	1	2
CL	7	1	2
F	8	1	2
CL	9	1	2
CL	10	1	2
F	11	1	2
F	0	2	2
CL	1	2	2
CL	2	2	2
CL	3	2	2
F	4	2	2
CL	5	2	2
F	6	2	2
F	7	2	2
F	8	2	2
CL	9	2	2
CL	10	2	2
F	11	2	2
CL	0	3	2
F	1	3	2
F	2	3	2
CL	3	3	2
F	4	3	2
CL	5	3	2
F	6	3	2
F	7	3	2
CL	8	3	2
CL	9	3	2
F	10	3	2
F	11	3	2
F	0	4	2
F	1	4	2
CL	2	4	2
F	3	4	2
F	4	4	2
CL	5	4	2
CL	6	4	2
F	7	4	2
CL	8	4	2
CL	9	4	2
CL	10	4	2
CL	11	4	2
F	0	5	2
F	1	5	2
CL	2	5	2
F	3	5	2
F	4	5	2
CL	5	5	2
CL	6	5	2
F	7	5	2
F	8	5	2
CL	9	5	2
CL	10	5	2
F	11	5	2
CL	0	6	2
F	1	6	2
F	2	6	2
F	3	6	2
CL	4	6	2
F	5	6	2
F	6	6	2
CL	7	6	2
CL	8	6	2
CL	9	6	2
F	10	6	2
F	11	6	2
F	0	7	2
F	1	7	2
CL	2	7	2
F	3	7	2
CL	4	7	2
F	5	7	2
CL	6	7	2
CL	7	7	2
CL	8	7	2
CL	9	7	2
CL	10	7	2
CL	11	7	2
F	0	8	2
CL	1	8	2
F	2	8	2
F	3	8	2
CL	4	8	2
CL	5	8	2
F	6	8	2
CL	7	8	2
F	8	8	2
F	9	8	2
F	10	8	2
F	11	8	2
CL	0	9	2
CL	1	9	2
CL	2	9	2
F	3	9	2
F	4	9	2
F	5	9	2
CL	6	9	2
F	7	9	2
F	8	9	2
F	9	9	2
F	10	9	2
CL	11	9	2
F	0	10	2
F	1	10	2
F	2	10	2
F	3	10	2
F	4	10	2
F	5	10	2
F	6	10	2
CL	7	10	2
F	8	10	2
CL	9	10	2
CL	10	10	2
CL	11	10	2
F	0	11	2
F	1	11	2
F	2	11	2
F	3	11	2
CL	4	11	2
F	5	11	2
CL	6	11	2
CL	7	11	2
CL	8	11	2
F	9	11	2
CL	10	11	2
CL	11	11	2
CL	0	0	3
F	1	0	3
F	2	0	3
F	3	0	3
F	4	0	3
CL	5	0	3
F	6	0	3
CL	7	0	3
F	8	0	3
F	9	0	3
CL	10	0	3
CL	11	0	3
CL	0	1	3
CL	1	1	3
CL	2	1	3
F	3	1	3
CL	4	1	3
CL	5	1	3
F	6	1	3
F	7	1	3
F	8	1	3
CL	9	1	3
CL	10	1	3
F	11	1	3
F	0	2	3
F	1	2	3
F	2	2	3
F	3	2	3
CL	4	2	3
CL	5	2	3
CL	6	2	3
CL	7	2	3
CL	8	2	3
CL	9	2	3
CL	10	2	3
F	11	2	3
CL	0	3	3
CL	1	3	3
CL	2	3	3
F	3	3	3
F	4	3	3
CL	5	3	3
F	6	3	3
F	7	3	3
CL	8	3	3
CL	9	3	3
F	10	3	3
CL	11	3	3
CL	0	4	3
CL	1	4	3
CL	2	4	3
CL	3	4	3
CL	4	4	3
F	5	4	3
CL	6	4	3
F	7	4	3
CL	8	4	3
CL	9	4	3
F	10	4	3
CL	11	4	3
CL	0	5	3
F	1	5	3
F	2	5	3
CL	3	5	3
F	4	5	3
F	5	5	3
CL	6	5	3
CL	7	5	3
F	8	5	3
CL	9	5	3
F	10	5	3
CL	11	5	3
CL	0	6	3
F	1	6	3
CL	2	6	3
CL	3	6	3
CL	4	6	3
F	5	6	3
F	6	6	3
CL	7	6	3
CL	8	6	3
F	9	6	3
CL	10	6	3
F	11	6	3
CL	0	7	3
F	1	7	3
CL	2	7	3
F	3	7	3
CL	4	7	3
F	5	7	3
F	6	7	3
CL	7	7	3
F	8	7	3
F	9	7	3
F	10	7	3
F	11	7	3
F	0	8	3
F	1	8	3
F	2	8	3
CL	3	8	3
CL	4	8	3
F	5	8	3
F	6	8	3
F	7	8	3
CL	8	8	3
F	9	8	3
CL	10	8	3
CL	11	8	3
F	0	9	3
CL	1	9	3
F	2	9	3
F	3	9	3
CL	4	9	3
F	5	9	3
CL	6	9	3
CL	7	9	3
CL	8	9	3
F	9	9	3
CL	10	9	3
CL	11	9	3
CL	0	10	3
CL	1	10	3
CL	2	10	3
CL	3	10	3
CL	4	10	3
F	5	10	3
CL	6	10	3
F	7	10	3
F	8	10	3
F	9	10	3
CL	10	10	3
F	11	10	3
CL	0	11	3
CL	1	11	3
F	2	11	3
F	3	11	3
CL	4	11	3
F	5	11	3
CL	6	11	3
F	7	11	3
CL	8	11	3
F	9	11	3
CL	10	11	3
F	11	11	3
CL	0	0	4
CL	1	0	4
CL	2	0	4
F	3	0	4
F	4	0	4
CL	5	0	4
F	6	0	4
CL	7	0	4
F	8	0	4
CL	9	0	4
F	10	0	4
CL	11	0	4
CL	0	1	4
F	1	1	4
F	2	1	4
CL	3	1	4
F	4	1	4
CL	5	1	4
CL	6	1	4
F	7	1	4
F	8	1	4
CL	9	1	4
CL	10	1	4
F	11	1	4
CL	0	2	4
CL	1	2	4
CL	2	2	4
F	3	2	4
F	4	2	4
CL	5	2	4
F	6	2	4
CL	7	2	4
CL	8	2	4
F	9	2	4
CL	10	2	4
F	11	2	4
CL	0	3	4
F	1	3	4
F	2	3	4
CL	3	3	4
CL	4	3	4
CL	5	3	4
CL	6	3	4
F	7	3	4
CL	8	3	4
F	9	3	4
F	10	3	4
F	11	3	4
F	0	4	4
F	1	4	4
F	2	4	4
F	3	4	4
CL	4	4	4
F	5	4	4
F	6	4	4
F	7	4	4
F	8	4	4
F	9	4	4
CL	10	4	4
F	11	4	4
F	0	5	4
CL	1	5	4
CL	2	5	4
CL	3	5	4
F	4	5	4
F	5	5	4
F	6	5	4
CL	7	5	4
F	8	5	4
F	9	5	4
F	10	5	4
F	11	5	4
F	0	6	4
F	1	6	4
CL	2	6	4
CL	3	6	4
CL	4	6	4
CL	5	6	4
CL	6	6	4
F	7	6	4
F	8	6	4
F	9	6	4
F	10	6	4
F	11	6	4
F	0	7	4
CL	1	7	4
CL	2	7	4
F	3	7	4
CL	4	7	4
F	5	7	4
F	6	7	4
F	7	7	4
F	8	7	4
F	9	7	4
CL	10	7	4
CL	11	7	4
CL	0	8	4
F	1	8	4
CL	2	8	4
F	3	8	4
F	4	8	4
CL	5	8	4
CL	6	8	4
CL	7	8	4
F	8	8	4
CL	9	8	4
F	10	8	4
F	11	8	4
CL	0	9	4
F	1	9	4
F	2	9	4
CL	3	9	4
CL	4	9	4
F	5	9	4
F	6	9	4
F	7	9	4
CL	8	9	4
CL	9	9	4
CL	10	9	4
CL	11	9	4
F	0	10	4
F	1	10	4
F	2	10	4
CL	3	10	4
F	4	10	4
CL	5	10	4
F	6	10	4
CL	7	10	4
F	8	10	4
F	9	10	4
F	10	10	4
CL	11	10	4
CL	0	11	4
CL	1	11	4
F	2	11	4
CL	3	11	4
CL	4	11	4
CL	5	11	4
F	6	11	4
CL	7	11	4
CL	8	11	4
F	9	11	4
CL	10	11	4
CL	11	11	4
CL	0	0	5
F	1	0	5
CL	2	0	5
F	3	0	5
F	4	0	5
F	5	0	5
CL	6	0	5
CL	7	0	5
CL	8	0	5
F	9	0	5
CL	10	0	5
CL	11	0	5
F	0	1	5
CL	1	1	5
F	2	1	5
F	3	1	5
F	4	1	5
F	5	1	5
CL	6	1	5
F	7	1	5
CL	8	1	5
F	9	1	5
F	10	1	5
CL	11	1	5
F	0	2	5
F	1	2	5
F	2	2	5
CL	3	2	5
CL	4	2	5
CL	5	2	5
CL	6	2	5
F	7	2	5
F	8	2	5
CL	9	2	5
F	10	2	5
F	11	2	5
CL	0	3	5
F	1	3	5
F	2	3	5
F	3	3	5
F	4	3	5
F	5	3	5
F	6	3	5
F	7	3	5
CL	8	3	5
CL	9	3	5
CL	10	3	5
CL	11	3	5
F	0	4	5
F	1	4	5
CL	2	4	5
F	3	4	5
F	4	4	5
CL	5	4	5
F	6	4	5
CL	7	4	5
CL	8	4	5
F	9	4	5
F	10	4	5
F	11	4	5
F	0	5	5
F	1	5	5
CL	2	5	5
F	3	5	5
F	4	5	5
CL	5	5	5
CL	6	5	5
CL	7	5	5
CL	8	5	5
CL	9	5	5
CL	10	5	5
F	11	5	5
CL	0	6	5
CL	1	6	5
F	2	6	5
CL	3	6	5
CL	4	6	5
CL	5	6	5
F	6	6	5
F	7	6	5
CL	8	6	5
F	9	6	5
F	10	6	5
CL	11	6	5
CL	0	7	5
F	1	7	5
CL	2	7	5
F	3	7	5
F	4	7	5
CL	5	7	5
CL	6	7	5
CL	7	7	5
CL	8	7	5
F	9	7	5
CL	10	7	5
F	11	7	5
CL	0	8	5
CL	1	8	5
F	2	8	5
CL	3	8	5
CL	4	8	5
F	5	8	5
CL	6	8	5
F	7	8	5
CL	8	8	5
CL	9	8	5
F	10	8	5
F	11	8	5
F	0	9	5
F	1	9	5
CL	2	9	5
CL	3	9	5
CL	4	9	5
F	5	9	5
F	6	9	5
CL	7	9	5
CL	8	9	5
CL	9	9	5
CL	10	9	5
CL	11	9	5
CL	0	10	5
F	1	10	5
F	2	10	5
CL	3	10	5
F	4	10	5
CL	5	10	5
F	6	10	5
F	7	10	5
F	8	10	5
CL	9	10	5
F	10	10	5
CL	11	10	5
F	0	11	5
F	1	11	5
CL	2	11	5
F	3	11	5
CL	4	11	5
CL	5	11	5
CL	6	11	5
CL	7	11	5
CL	8	11	5
CL	9	11	5
F	10	11	5
CL	11	11	5
CL	0	0	6
F	1	0	6
CL	2	0	6
F	3	0	6
F	4	0	6
F	5	0	6
CL	6	0	6
CL	7	0	6
F	8	0	6
F	9	0	6
F	10	0	6
CL	11	0	6
CL	0	1	6
CL	1	1	6
CL	2	1	6
F	3	1	6
F	4	1	6
CL	5	1	6
F	6	1	6
CL	7	1	6
CL	8	1	6
F	9	1	6
F	10	1	6
CL	11	1	6
CL	0	2	6
F	1	2	6
F	2	2	6
CL	3	2	6
F	4	2	6
F	5	2	6
F	6	2	6
CL	7	2	6
F	8	2	6
CL	9	2	6
CL	10	2	6
CL	11	2	6
CL	0	3	6
F	1	3	6
F	2	3	6
F	3	3	6
CL	4	3	6
CL	5	3	6
F	6	3	6
CL	7	3	6
F	8	3	6
F	9	3	6
CL	10	3	6
CL	11	3	6
CL	0	4	6
F	1	4	6
F	2	4	6
F	3	4	6
F	4	4	6
CL	5	4	6
CL	6	4	6
CL	7	4	6
CL	8	4	6
CL	9	4	6
CL	10	4	6
F	11	4	6
F	0	5	6
CL	1	5	6
F	2	5	6
CL	3	5	6
CL	4	5	6
CL	5	5	6
CL	6	5	6
CL	7	5	6
CL	8	5	6
CL	9	5	6
CL	10	5	6
F	11	5	6
CL	0	6	6
F	1	6	6
CL	2	6	6
CL	3	6	6
F	4	6	6
F	5	6	6
F	6	6	6
F	7	6	6
CL	8	6	6
CL	9	6	6
F	10	6	6
CL	11	6	6
CL	0	7	6
CL	1	7	6
CL	2	7	6
F	3	7	6
CL	4	7	6
CL	5	7	6
F	6	7	6
F	7	7	6
CL	8	7	6
F	9	7	6
CL	10	7	6
CL	11	7	6
F	0	8	6
CL	1	8	6
CL	2	8	6
CL	3	8	6
CL	4	8	6
F	5	8	6
F	6	8	6
CL	7	8	6
F	8	8	6
F	9	8	6
F	10	8	6
F	11	8	6
F	0	9	6
CL	1	9	6
F	2	9	6
F	3	9	6
CL	4	9	6
CL	5	9	6
F	6	9	6
F	7	9	6
CL	8	9	6
CL	9	9	6
F	10	9	6
CL	11	9	6
CL	0	10	6
F	1	10	6
F	2	10	6
F	3	10	6
F	4	10	6
F	5	10	6
CL	6	10	6
CL	7	10	6
F	8	10	6
CL	9	10	6
F	10	10	6
F	11	10	6
F	0	11	6
F	1	11	6
F	2	11	6
F	3	11	6
F	4	11	6
CL	5	11	6
CL	6	11	6
F	7	11	6
CL	8	11	6
CL	9	11	6
CL	10	11	6
CL	11	11	6
F	0	0	7
CL	1	0	7
F	2	0	7
F	3	0	7
F	4	0	7
F	5	0	7
CL	6	0	7
F	7	0	7
CL	8	0	7
CL	9	0	7
CL	10	0	7
CL	11	0	7
F	0	1	7
F	1	1	7
F	2	1	7
CL	3	1	7
F	4	1	7
F	5	1	7
F	6	1	7
F	7	1	7
CL	8	1	7
CL	9	1	7
F	10	1	7
CL	11	1	7
F	0	2	7
F	1	2	7
CL	2	2	7
F	3	2	7
CL	4	2	7
CL	5	2	7
F	6	2	7
CL	7	2	7
CL	8	2	7
CL	9	2	7
F	10	2	7
CL	11	2	7
CL	0	3	7
F	1	3	7
CL	2	3	7
F	3	3	7
F	4	3	7
CL	5	3	7
F	6	3	7
CL	7	3	7
F	8	3	7
CL	9	3	7
CL	10	3	7
F	11	3	7
F	0	4	7
F	1	4	7
CL	2	4	7
F	3	4	7
F	4	4	7
CL	5	4	7
F	6	4	7
CL	7	4	7
F	8	4	7
CL	9	4	7
F	10	4	7
F	11	4	7
F	0	5	7
CL	1	5	7
CL	2	5	7
CL	3	5	7
CL	4	5	7
F	5	5	7
CL	6	5	7
F	7	5	7
CL	8	5	7
F	9	5	7
F	10	5	7
F	11	5	7
CL	0	6	7
CL	1	6	7
F	2	6	7
F	3	6	7
CL	4	6	7
F	5	6	7
CL	6	6	7
CL	7	6	7
CL	8	6	7
F	9	6	7
F	10	6	7
F	11	6	7
CL	0	7	7
CL	1	7	7
F	2	7	7
CL	3	7	7
CL	4	7	7
CL	5	7	7
F	6	7	7
F	7	7	7
CL	8	7	7
CL	9	7	7
CL	10	7	7
CL	11	7	7
F	0	8	7
F	1	8	7
F	2	8	7
F	3	8	7
F	4	8	7
F	5	8	7
CL	6	8	7
CL	7	8	7
F	8	8	7
F	9	8	7
F	10	8	7
CL	11	8	7
F	0	9	7
F	1	9	7
F	2	9	7
CL	3	9	7
CL	4	9	7
F	5	9	7
F	6	9	7
F	7	9	7
F	8	9	7
CL	9	9	7
CL	10	9	7
F	11	9	7
F	0	10	7
CL	1	10	7
F	2	10	7
CL	3	10	7
CL	4	10	7
F	5	10	7
F	6	10	7
F	7	10	7
F	8	10	7
F	9	10	7
F	10	10	7
F	11	10	7
F	0	11	7
F	1	11	7
CL	2	11	7
F	3	11	7
F	4	11	7
CL	5	11	7
F	6	11	7
F	7	11	7
CL	8	11	7
F	9	11	7
F	10	11	7
F	11	11	7
CL	0	0	8
CL	1	0	8
CL	2	0	8
CL	3	0	8
F	4	0	8
F	5	0	8
F	6	0	8
CL	7	0	8
CL	8	0	8
F	9	0	8
F	10	0	8
F	11	0	8
F	0	1	8
CL	1	1	8
F	2	1	8
CL	3	1	8
CL	4	1	8
F	5	1	8
F	6	1	8
F	7	1	8
F	8	1	8
F	9	1	8
CL	10	1	8
F	11	1	8
CL	0	2	8
CL	1	2	8
F	2	2	8
F	3	2	8
CL	4	2	8
CL	5	2	8
CL	6	2	8
CL	7	2	8
CL	8	2	8
F	9	2	8
F	10	2	8
F	11	2	8
F	0	3	8
CL	1	3	8
F	2	3	8
F	3	3	8
CL	4	3	8
F	5	3	8
CL	6	3	8
CL	7	3	8
F	8	3	8
CL	9	3	8
F	10	3	8
CL	11	3	8
F	0	4	8
F	1	4	8
CL	2	4	8
CL	3	4	8
CL	4	4	8
F	5	4	8
F	6	4	8
CL	7	4	8
F	8	4	8
CL	9	4	8
CL	10	4	8
F	11	4	8
CL	0	5	8
CL	1	5	8
CL	2	5	8
F	3	5	8
F	4	5	8
CL	5	5	8
F	6	5	8
CL	7	5	8
F	8	5	8
F	9	5	8
F	10	5	8
CL	11	5	8
CL	0	6	8
CL	1	6	8
F	2	6	8
CL	3	6	8
CL	4	6	8
F	5	6	8
F	6	6	8
F	7	6	8
F	8	6	8
F	9	6	8
F	10	6	8
F	11	6	8
CL	0	7	8
CL	1	7	8
F	2	7	8
F	3	7	8
CL	4	7	8
CL	5	7	8
CL	6	7	8
CL	7	7	8
CL	8	7	8
CL	9	7	8
F	10	7	8
F	11	7	8
F	0	8	8
F	1	8	8
CL	2	8	8
F	3	8	8
CL	4	8	8
CL	5	8	8
CL	6	8	8
CL	7	8	8
F	8	8	8
CL	9	8	8
CL	10	8	8
CL	11	8	8
F	0	9	8
F	1	9	8
CL	2	9	8
F	3	9	8
CL	4	9	8
CL	5	9	8
F	6	9	8
F	7	9	8
CL	8	9	8
F	9	9	8
CL	10	9	8
F	11	9	8
CL	0	10	8
CL	1	10	8
CL	2	10	8
CL	3	10	8
F	4	10	8
CL	5	10	8
CL	6	10	8
CL	7	10	8
F	8	10	8
CL	9	10	8
CL	10	10	8
CL	11	10	8
CL	0	11	8
CL	1	11	8
CL	2	11	8
F	3	11	8
F	4	11	8
F	5	11	8
F	6	11	8
CL	7	11	8
F	8	11	8
F	9	11	8
CL	10	11	8
F	11	11	8
F	0	0	9
CL	1	0	9
CL	2	0	9
CL	3	0	9
CL	4	0	9
F	5	0	9
F	6	0	9
CL	7	0	9
CL	8	0	9
CL	9	0	9
CL	10	0	9
CL	11	0	9
CL	0	1	9
CL	1	1	9
CL	2	1	9
CL	3	1	9
CL	4	1	9
CL	5	1	9
CL	6	1	9
F	7	1	9
CL	8	1	9
F	9	1	9
CL	10	1	9
CL	11	1	9
CL	0	2	9
F	1	2	9
CL	2	2	9
CL	3	2	9
CL	4	2	9
CL	5	2	9
CL	6	2	9
F	7	2	9
F	8	2	9
CL	9	2	9
CL	10	2	9
CL	11	2	9
CL	0	3	9
CL	1	3	9
CL	2	3	9
F	3	3	9
CL	4	3	9
F	5	3	9
F	6	3	9
CL	7	3	9
CL	8	3	9
F	9	3	9
CL	10	3	9
CL	11	3	9
CL	0	4	9
CL	1	4	9
F	2	4	9
CL	3	4	9
CL	4	4	9
F	5	4	9
F	6	4	9
CL	7	4	9
CL	8	4	9
CL	9	4	9
F	10	4	9
CL	11	4	9
F	0	5	9
F	1	5	9
CL	2	5	9
CL	3	5	9
CL	4	5	9
F	5	5	9
F	6	5	9
CL	7	5	9
F	8	5	9
F	9	5	9
F	10	5	9
CL	11	5	9
CL	0	6	9
F	1	6	9
F	2	6	9
CL	3	6	9
CL	4	6	9
F	5	6	9
F	6	6	9
F	7	6	9
F	8	6	9
CL	9	6	9
F	10	6	9
CL	11	6	9
F	0	7	9
CL	1	7	9
CL	2	7	9
CL	3	7	9
F	4	7	9
CL	5	7	9
CL	6	7	9
CL	7	7	9
F	8	7	9
F	9	7	9
CL	10	7	9
F	11	7	9
CL	0	8	9
F	1	8	9
CL	2	8	9
F	3	8	9
CL	4	8	9
F	5	8	9
CL	6	8	9
CL	7	8	9
CL	8	8	9
CL	9	8	9
CL	10	8	9
F	11	8	9
CL	0	9	9
CL	1	9	9
F	2	9	9
F	3	9	9
F	4	9	9
CL	5	9	9
CL	6	9	9
CL	7	9	9
F	8	9	9
F	9	9	9
CL	10	9	9
CL	11	9	9
CL	0	10	9
F	1	10	9
F	2	10	9
CL	3	10	9
F	4	10	9
F	5	10	9
F	6	10	9
F	7	10	9
CL	8	10	9
F	9	10	9
CL	10	10	9
F	11	10	9
F	0	11	9
CL	1	11	9
CL	2	11	9
CL	3	11	9
F	4	11	9
F	5	11	9
F	6	11	9
CL	7	11	9
F	8	11	9
F	9	11	9
F	10	11	9
F	11	11	9
CL	0	0	10
CL	1	0	10
F	2	0	10
CL	3	0	10
CL	4	0	10
CL	5	0	10
F	6	0	10
CL	7	0	10
CL	8	0	10
CL	9	0	10
CL	10	0	10
F	11	0	10
CL	0	1	10
F	1	1	10
F	2	1	10
F	3	1	10
CL	4	1	10
F	5	1	10
CL	6	1	10
F	7	1	10
F	8	1	10
CL	9	1	10
F	10	1	10
CL	11	1	10
CL	0	2	10
F	1	2	10
CL	2	2	10
F	3	2	10
CL	4	2	10
CL	5	2	10
CL	6	2	10
F	7	2	10
F	8	2	10
F	9	2	10
F	10	2	10
F	11	2	10
F	0	3	10
F	1	3	10
CL	2	3	10
F	3	3	10
F	4	3	10
F	5	3	10
CL	6	3	10
CL	7	3	10
F	8	3	10
F	9	3	10
F	10	3	10
F	11	3	10
F	0	4	10
CL	1	4	10
CL	2	4	10
F	3	4	10
CL	4	4	10
F	5	4	10
F	6	4	10
F	7	4	10
F	8	4	10
F	9	4	10
F	10	4	10
CL	11	4	10
F	0	5	10
CL	1	5	10
CL	2	5	10
F	3	5	10
CL	4	5	10
F	5	5	10
F	6	5	10
F	7	5	10
CL	8	5	10
F	9	5	10
CL	10	5	10
F	11	5	10
F	0	6	10
CL	1	6	10
CL	2	6	10
F	3	6	10
CL	4	6	10
F	5	6	10
CL	6	6	10
F	7	6	10
CL	8	6	10
F	9	6	10
CL	10	6	10
F	11	6	10
CL	0	7	10
F	1	7	10
CL	2	7	10
F	3	7	10
F	4	7	10
CL	5	7	10
F	6	7	10
CL	7	7	10
CL	8	7	10
F	9	7	10
CL	10	7	10
CL	11	7	10
CL	0	8	10
CL	1	8	10
CL	2	8	10
F	3	8	10
F	4	8	10
F	5	8	10
F	6	8	10
F	7	8	10
F	8	8	10
F	9	8	10
F	10	8	10
CL	11	8	10
CL	0	9	10
CL	1	9	10
CL	2	9	10
F	3	9	10
CL	4	9	10
F	5	9	10
CL	6	9	10
CL	7	9	10
F	8	9	10
CL	9	9	10
CL	10	9	10
F	11	9	10
F	0	10	10
F	1	10	10
CL	2	10	10
F	3	10	10
F	4	10	10
CL	5	10	10
CL	6	10	10
CL	7	10	10
F	8	10	10
F	9	10	10
CL	10	10	10
CL	11	10	10
CL	0	11	10
CL	1	11	10
F	2	11	10
CL	3	11	10
F	4	11	10
CL	5	11	10
CL	6	11	10
F	7	11	10
CL	8	11	10
CL	9	11	10
CL	10	11	10
CL	11	11	10
F	0	0	11
F	1	0	11
F	2	0	11
F	3	0	11
F	4	0	11
F	5	0	11
CL	6	0	11
F	7	0	11
CL	8	0	11
CL	9	0	11
F	10	0	11
F	11	0	11
CL	0	1	11
CL	1	1	11
F	2	1	11
CL	3	1	11
F	4	1	11
CL	5	1	11
CL	6	1	11
F	7	1	11
CL	8	1	11
F	9	1	11
F	10	1	11
CL	11	1	11
F	0	2	11
F	1	2	11
CL	2	2	11
F	3	2	11
F	4	2	11
CL	5	2	11
F	6	2	11
CL	7	2	11
CL	8	2	11
CL	9	2	11
F	10	2	11
CL	11	2	11
CL	0	3	11
F	1	3	11
F	2	3	11
F	3	3	11
CL	4	3	11
CL	5	3	11
F	6	3	11
CL	7	3	11
CL	8	3	11
F	9	3	11
CL	10	3	11
CL	11	3	11
F	0	4	11
F	1	4	11
CL	2	4	11
CL	3	4	11
CL	4	4	11
F	5	4	11
CL	6	4	11
F	7	4	11
F	8	4	11
CL	9	4	11
F	10	4	11
F	11	4	11
CL	0	5	11
F	1	5	11
F	2	5	11
F	3	5	11
F	4	5	11
CL	5	5	11
F	6	5	11
CL	7	5	11
F	8	5	11
CL	9	5	11
F	10	5	11
F	11	5	11
CL	0	6	11
F	1	6	11
CL	2	6	11
F	3	6	11
CL	4	6	11
F	5	6	11
CL	6	6	11
CL	7	6	11
F	8	6	11
CL	9	6	11
CL	10	6	11
CL	11	6	11
CL	0	7	11
F	1	7	11
CL	2	7	11
F	3	7	11
F	4	7	11
CL	5	7	11
CL	6	7	11
F	7	7	11
F	8	7	11
CL	9	7	11
CL	10	7	11
F	11	7	11
F	0	8	11
F	1	8	11
CL	2	8	11
CL	3	8	11
CL	4	8	11
CL	5	8	11
CL	6	8	11
F	7	8	11
CL	8	8	11
F	9	8	11
CL	10	8	11
CL	11	8	11
F	0	9	11
F	1	9	11
F	2	9	11
F	3	9	11
F	4	9	11
F	5	9	11
CL	6	9	11
CL	7	9	11
F	8	9	11
F	9	9	11
CL	10	9	11
CL	11	9	11
CL	0	10	11
F	1	10	11
F	2	10	11
F	3	10	11
F	4	10	11
F	5	10	11
F	6	10	11
CL	7	10	11
CL	8	10	11
F	9	10	11
F	10	10	11
F	11	10	11
CL	0	11	11
CL	1	11	11
CL	2	11	11
F	3	11	11
F	4	11	11
F	5	11	11
F	6	11	11
F	7	11	11
F	8	11	11
CL	9	11	11
F	10	11	11
F	11	11	11
